7
Properties=species:S:1:pos:R:3 pbc="F F F"
C        0.69225100      -0.00000600      -0.00060700
C       -0.79185800       0.00001300      -0.02356000
H        1.09194198       0.86179337      -0.47917564
H        1.08443600       0.00010700       1.02451200
H        1.10183400      -0.88331600      -0.49109300
H       -1.34541200       0.92301200       0.05130400
H       -1.34513400      -0.92314200       0.05139800
